mtd/source_linearization/LVTestCase_copy/LVTest_Power_elem_kVA.txt

CIRCUIT ELEMENT POWER FLOW

(Power Flow into element from indicated Bus)

Power Delivery Elements

  Bus     Phase     kW     +j   kvar         kVA         PF

ELEMENT = "Vsource.SOURCE"
SOURCEBUS     1       -21.2 +j     -7.7       22.6       0.9405
SOURCEBUS     2       -17.8 +j     -7.2       19.3       0.9266
SOURCEBUS     3       -19.9 +j     -4.5       20.4       0.9752
   TERMINAL TOTAL .   -59.0 +j    -19.4       62.1       0.9498
SOURCEBUS     0         0.0 +j      0.0        0.0       1.0000
SOURCEBUS     0         0.0 +j      0.0        0.0       1.0000
SOURCEBUS     0         0.0 +j      0.0        0.0       1.0000
   TERMINAL TOTAL .     0.0 +j      0.0        0.0       1.0000

ELEMENT = "Transformer.TR1"
SOURCEBUS     1        21.2 +j      7.7       22.6       0.9405
SOURCEBUS     2        17.8 +j      7.2       19.3       0.9266
SOURCEBUS     3        19.9 +j      4.5       20.4       0.9752
SOURCEBUS     0         0.0 +j      0.0        0.0       1.0000
   TERMINAL TOTAL .    59.0 +j     19.4       62.1       0.9498
1             1       -22.5 +j     -7.3       23.6       0.9513
1             2       -20.3 +j     -6.7       21.4       0.9500
1             3       -16.2 +j     -5.3       17.0       0.9506
1             0         0.0 +j      0.0        0.0       1.0000
   TERMINAL TOTAL .   -59.0 +j    -19.2       62.0       0.9506

ELEMENT = "Line.LINE1"
1             1        22.5 +j      7.3       23.6       0.9513
1             2        20.3 +j      6.7       21.4       0.9500
1             3        16.2 +j      5.3       17.0       0.9506
   TERMINAL TOTAL .    59.0 +j     19.2       62.0       0.9506
2             1       -22.5 +j     -7.3       23.6       0.9513
2             2       -20.3 +j     -6.7       21.4       0.9500
2             3       -16.2 +j     -5.3       17.0       0.9505
   TERMINAL TOTAL .   -59.0 +j    -19.2       62.0       0.9506

ELEMENT = "Line.LINE2"
2             1        22.5 +j      7.3       23.6       0.9513
2             2        20.3 +j      6.7       21.4       0.9500
2             3        16.2 +j      5.3       17.0       0.9505
   TERMINAL TOTAL .    59.0 +j     19.2       62.0       0.9506
3             1       -22.5 +j     -7.3       23.6       0.9513
3             2       -20.3 +j     -6.7       21.4       0.9500
3             3       -16.2 +j     -5.3       17.0       0.9505
   TERMINAL TOTAL .   -59.0 +j    -19.2       62.0       0.9506

ELEMENT = "Line.LINE3"
3             1        22.5 +j      7.3       23.6       0.9513
3             2        20.3 +j      6.7       21.4       0.9500
3             3        16.2 +j      5.3       17.0       0.9505
   TERMINAL TOTAL .    59.0 +j     19.2       62.0       0.9506
4             1       -22.5 +j     -7.3       23.6       0.9513
4             2       -20.3 +j     -6.7       21.4       0.9500
4             3       -16.2 +j     -5.3       17.0       0.9505
   TERMINAL TOTAL .   -59.0 +j    -19.2       62.0       0.9506

ELEMENT = "Line.LINE4"
4             1        22.5 +j      7.3       23.6       0.9513
4             2        20.3 +j      6.7       21.4       0.9500
4             3        16.2 +j      5.3       17.0       0.9505
   TERMINAL TOTAL .    59.0 +j     19.2       62.0       0.9506
5             1       -22.5 +j     -7.3       23.6       0.9513
5             2       -20.3 +j     -6.7       21.4       0.9500
5             3       -16.2 +j     -5.3       17.0       0.9505
   TERMINAL TOTAL .   -59.0 +j    -19.2       62.0       0.9506

ELEMENT = "Line.LINE5"
5             1        22.5 +j      7.3       23.6       0.9513
5             2        20.3 +j      6.7       21.4       0.9500
5             3        16.2 +j      5.3       17.0       0.9505
   TERMINAL TOTAL .    59.0 +j     19.2       62.0       0.9506
6             1       -22.5 +j     -7.3       23.6       0.9513
6             2       -20.3 +j     -6.7       21.4       0.9500
6             3       -16.2 +j     -5.3       17.0       0.9505
   TERMINAL TOTAL .   -59.0 +j    -19.2       62.0       0.9506

ELEMENT = "Line.LINE6"
6             1        22.5 +j      7.3       23.6       0.9513
6             2        20.3 +j      6.7       21.4       0.9500
6             3        16.2 +j      5.3       17.0       0.9505
   TERMINAL TOTAL .    59.0 +j     19.2       62.0       0.9506
7             1       -22.4 +j     -7.3       23.6       0.9511
7             2       -20.3 +j     -6.7       21.4       0.9500
7             3       -16.1 +j     -5.3       17.0       0.9505
   TERMINAL TOTAL .   -58.9 +j    -19.2       61.9       0.9506

ELEMENT = "Line.LINE7"
7             1        22.4 +j      7.3       23.6       0.9511
7             2        20.3 +j      6.7       21.4       0.9500
7             3        16.1 +j      5.3       17.0       0.9505
   TERMINAL TOTAL .    58.9 +j     19.2       61.9       0.9506
8             1       -22.4 +j     -7.3       23.6       0.9511
8             2       -20.3 +j     -6.7       21.4       0.9500
8             3       -16.1 +j     -5.3       17.0       0.9505
   TERMINAL TOTAL .   -58.9 +j    -19.2       61.9       0.9506

ELEMENT = "Line.LINE8"
8             1        22.4 +j      7.3       23.6       0.9511
8             2        20.3 +j      6.7       21.4       0.9500
8             3        16.1 +j      5.3       17.0       0.9505
   TERMINAL TOTAL .    58.9 +j     19.2       61.9       0.9506
9             1       -22.4 +j     -7.3       23.6       0.9511
9             2       -20.3 +j     -6.7       21.4       0.9500
9             3       -16.1 +j     -5.3       17.0       0.9505
   TERMINAL TOTAL .   -58.9 +j    -19.2       61.9       0.9506

ELEMENT = "Line.LINE9"
9             1        22.4 +j      7.3       23.6       0.9511
9             2        20.3 +j      6.7       21.4       0.9500
9             3        16.1 +j      5.3       17.0       0.9505
   TERMINAL TOTAL .    58.9 +j     19.2       61.9       0.9506
10            1       -22.4 +j     -7.3       23.6       0.9511
10            2       -20.3 +j     -6.7       21.4       0.9500
10            3       -16.1 +j     -5.3       17.0       0.9505
   TERMINAL TOTAL .   -58.9 +j    -19.2       61.9       0.9505

ELEMENT = "Line.LINE10"
10            1        22.4 +j      7.3       23.6       0.9511
10            2        20.3 +j      6.7       21.4       0.9500
10            3        16.1 +j      5.3       17.0       0.9505
   TERMINAL TOTAL .    58.9 +j     19.2       61.9       0.9505
11            1       -22.4 +j     -7.3       23.6       0.9511
11            2       -20.3 +j     -6.7       21.4       0.9500
11            3       -16.1 +j     -5.3       17.0       0.9505
   TERMINAL TOTAL .   -58.9 +j    -19.2       61.9       0.9505

ELEMENT = "Line.LINE11"
11            1        22.4 +j      7.3       23.6       0.9511
11            2        20.3 +j      6.7       21.4       0.9500
11            3        16.1 +j      5.3       17.0       0.9505
   TERMINAL TOTAL .    58.9 +j     19.2       61.9       0.9505
12            1       -22.4 +j     -7.3       23.6       0.9511
12            2       -20.3 +j     -6.7       21.4       0.9500
12            3       -16.1 +j     -5.3       17.0       0.9505
   TERMINAL TOTAL .   -58.9 +j    -19.2       61.9       0.9505

ELEMENT = "Line.LINE12"
12            1        22.4 +j      7.3       23.6       0.9511
12            2        20.3 +j      6.7       21.4       0.9500
12            3        16.1 +j      5.3       17.0       0.9505
   TERMINAL TOTAL .    58.9 +j     19.2       61.9       0.9505
13            1       -22.4 +j     -7.3       23.6       0.9511
13            2       -20.3 +j     -6.7       21.4       0.9500
13            3       -16.1 +j     -5.3       17.0       0.9505
   TERMINAL TOTAL .   -58.9 +j    -19.2       61.9       0.9505

ELEMENT = "Line.LINE13"
13            1        22.4 +j      7.3       23.6       0.9511
13            2        20.3 +j      6.7       21.4       0.9500
13            3        16.1 +j      5.3       17.0       0.9505
   TERMINAL TOTAL .    58.9 +j     19.2       61.9       0.9505
14            1       -22.4 +j     -7.3       23.6       0.9511
14            2       -20.3 +j     -6.7       21.4       0.9500
14            3       -16.1 +j     -5.3       17.0       0.9505
   TERMINAL TOTAL .   -58.8 +j    -19.2       61.9       0.9505

ELEMENT = "Line.LINE14"
14            1        22.4 +j      7.3       23.6       0.9511
14            2        20.3 +j      6.7       21.4       0.9500
14            3        16.1 +j      5.3       17.0       0.9505
   TERMINAL TOTAL .    58.8 +j     19.2       61.9       0.9505
15            1       -22.4 +j     -7.3       23.6       0.9510
15            2       -20.3 +j     -6.7       21.3       0.9500
15            3       -16.1 +j     -5.3       17.0       0.9505
   TERMINAL TOTAL .   -58.8 +j    -19.2       61.9       0.9505

ELEMENT = "Line.LINE15"
15            1        -0.0 +j     -0.0        0.0       0.5026
15            2        -0.0 +j     -0.0        0.0       0.9984
15            3         0.0 +j      0.0        0.0       0.0026
   TERMINAL TOTAL .    -0.0 +j     -0.0        0.0       0.9470
16            1         0.0 +j      0.0        0.0       0.5026
16            2         0.0 +j      0.0        0.0       0.9984
16            3        -0.0 +j     -0.0        0.0       0.0026
   TERMINAL TOTAL .     0.0 +j      0.0        0.0       0.9470

ELEMENT = "Line.LINE16"
15            1        22.4 +j      7.3       23.6       0.9510
15            2        20.3 +j      6.7       21.3       0.9500
15            3        16.1 +j      5.3       17.0       0.9505
   TERMINAL TOTAL .    58.8 +j     19.2       61.9       0.9505
17            1       -22.4 +j     -7.3       23.5       0.9510
17            2       -20.3 +j     -6.7       21.3       0.9500
17            3       -16.1 +j     -5.3       17.0       0.9504
   TERMINAL TOTAL .   -58.8 +j    -19.2       61.8       0.9505

ELEMENT = "Line.LINE17"
16            1         0.0 +j      0.0        0.0       0.5026
16            2         0.0 +j      0.0        0.0       0.9984
16            3        -0.0 +j     -0.0        0.0       0.0026
   TERMINAL TOTAL .     0.0 +j      0.0        0.0       0.9470
18            1        -0.0 +j     -0.0        0.0       0.5026
18            2        -0.0 +j     -0.0        0.0       0.9984
18            3         0.0 +j      0.0        0.0       0.0026
   TERMINAL TOTAL .    -0.0 +j     -0.0        0.0       0.9470

ELEMENT = "Line.LINE18"
17            1        22.4 +j      7.3       23.5       0.9510
17            2        20.3 +j      6.7       21.3       0.9500
17            3        16.1 +j      5.3       17.0       0.9504
   TERMINAL TOTAL .    58.8 +j     19.2       61.8       0.9505
19            1       -22.4 +j     -7.3       23.5       0.9510
19            2       -20.3 +j     -6.7       21.3       0.9500
19            3       -16.1 +j     -5.3       17.0       0.9504
   TERMINAL TOTAL .   -58.8 +j    -19.2       61.8       0.9505

ELEMENT = "Line.LINE19"
18            1         0.0 +j      0.0        0.0       1.0000
18            2         0.0 +j      0.0        0.0       1.0000
18            3        -0.0 +j     -0.0        0.0       0.0026
   TERMINAL TOTAL .    -0.0 +j     -0.0        0.0       0.0026
20            1         0.0 +j      0.0        0.0       1.0000
20            2         0.0 +j      0.0        0.0       1.0000
20            3         0.0 +j      0.0        0.0       0.0026
   TERMINAL TOTAL .     0.0 +j      0.0        0.0       0.0026

ELEMENT = "Line.LINE20"
19            1        22.4 +j      7.3       23.5       0.9510
19            2        20.3 +j      6.7       21.3       0.9500
19            3        16.1 +j      5.3       17.0       0.9504
   TERMINAL TOTAL .    58.8 +j     19.2       61.8       0.9505
21            1       -22.4 +j     -7.3       23.5       0.9510
21            2       -20.3 +j     -6.7       21.3       0.9500
21            3       -16.1 +j     -5.3       17.0       0.9504
   TERMINAL TOTAL .   -58.8 +j    -19.2       61.8       0.9505

ELEMENT = "Line.LINE21"
20            1         0.0 +j      0.0        0.0       0.9667
20            2         0.0 +j      0.0        0.0       0.9984
20            3         0.0 +j     -0.0        0.0      -1.0000
   TERMINAL TOTAL .     0.0 +j      0.0        0.0       0.9945
22            1        -0.0 +j     -0.0        0.0       0.9667
22            2        -0.0 +j     -0.0        0.0       0.9984
22            3        -0.0 +j      0.0        0.0      -1.0000
   TERMINAL TOTAL .    -0.0 +j     -0.0        0.0       0.9945

ELEMENT = "Line.LINE22"
21            1        22.4 +j      7.3       23.5       0.9510
21            2        20.3 +j      6.7       21.3       0.9500
21            3        16.1 +j      5.3       17.0       0.9504
   TERMINAL TOTAL .    58.8 +j     19.2       61.8       0.9505
23            1       -22.4 +j     -7.3       23.5       0.9510
23            2       -20.3 +j     -6.7       21.3       0.9500
23            3       -16.1 +j     -5.3       17.0       0.9504
   TERMINAL TOTAL .   -58.8 +j    -19.2       61.8       0.9505

ELEMENT = "Line.LINE23"
22            1         0.0 +j     -0.0        0.0      -0.9980
22            2         0.0 +j      0.0        0.0       0.9984
22            3         0.0 +j     -0.0        0.0      -1.0000
   TERMINAL TOTAL .     0.0 +j     -0.0        0.0      -1.0000
24            1        -0.0 +j      0.0        0.0      -0.9980
24            2        -0.0 +j     -0.0        0.0       0.9984
24            3        -0.0 +j      0.0        0.0      -1.0000
   TERMINAL TOTAL .    -0.0 +j      0.0        0.0      -1.0000

ELEMENT = "Line.LINE24"
23            1        22.4 +j      7.3       23.5       0.9510
23            2        20.3 +j      6.7       21.3       0.9500
23            3        16.1 +j      5.3       17.0       0.9504
   TERMINAL TOTAL .    58.8 +j     19.2       61.8       0.9505
25            1       -22.4 +j     -7.3       23.5       0.9509
25            2       -20.3 +j     -6.7       21.3       0.9500
25            3       -16.1 +j     -5.3       17.0       0.9504
   TERMINAL TOTAL .   -58.8 +j    -19.2       61.8       0.9505

ELEMENT = "Line.LINE25"
24            1         0.0 +j      0.0        0.0       0.9981
24            2         0.0 +j      0.0        0.0       0.9984
24            3         0.0 +j     -0.0        0.0      -0.9999
   TERMINAL TOTAL .     0.0 +j      0.0        0.0       0.9995
26            1        -0.0 +j     -0.0        0.0       0.9981
26            2        -0.0 +j     -0.0        0.0       0.9984
26            3        -0.0 +j      0.0        0.0      -0.9999
   TERMINAL TOTAL .    -0.0 +j     -0.0        0.0       0.9995

ELEMENT = "Line.LINE26"
25            1         2.2 +j      0.7        2.3       0.9500
25            2        -0.0 +j     -0.0        0.0       0.9948
25            3        -0.0 +j     -0.0        0.0       0.9980
   TERMINAL TOTAL .     2.2 +j      0.7        2.3       0.9500
27            1        -2.2 +j     -0.7        2.3       0.9500
27            2         0.0 +j      0.0        0.0       0.9948
27            3         0.0 +j      0.0        0.0       0.9980
   TERMINAL TOTAL .    -2.2 +j     -0.7        2.3       0.9500

ELEMENT = "Line.LINE27"
25            1        20.2 +j      6.6       21.3       0.9510
25            2        20.3 +j      6.7       21.3       0.9500
25            3        16.1 +j      5.3       17.0       0.9504
   TERMINAL TOTAL .    56.6 +j     18.5       59.6       0.9505
28            1       -20.2 +j     -6.6       21.2       0.9509
28            2       -20.2 +j     -6.6       21.3       0.9500
28            3       -16.1 +j     -5.3       17.0       0.9504
   TERMINAL TOTAL .   -56.5 +j    -18.5       59.5       0.9504

ELEMENT = "Line.LINE28"
26            1         0.0 +j      0.0        0.0       1.0000
26            2         0.0 +j      0.0        0.0       1.0000
26            3         0.0 +j     -0.0        0.0      -0.9994
   TERMINAL TOTAL .     0.0 +j     -0.0        0.0      -0.9994
29            1         0.0 +j      0.0        0.0       1.0000
29            2         0.0 +j      0.0        0.0       1.0000
29            3        -0.0 +j      0.0        0.0      -0.9994
   TERMINAL TOTAL .    -0.0 +j      0.0        0.0      -0.9994

ELEMENT = "Line.LINE29"
27            1         1.1 +j      0.4        1.1       0.9500
27            2        -0.0 +j     -0.0        0.0       0.8902
27            3        -0.0 +j     -0.0        0.0       0.9982
   TERMINAL TOTAL .     1.1 +j      0.4        1.1       0.9500
30            1        -1.1 +j     -0.4        1.1       0.9500
30            2         0.0 +j      0.0        0.0       0.8902
30            3         0.0 +j      0.0        0.0       0.9982
   TERMINAL TOTAL .    -1.1 +j     -0.4        1.1       0.9500

ELEMENT = "Line.LINE30"
27            1         1.1 +j      0.4        1.1       0.9500
27            2        -0.0 +j     -0.0        0.0       0.9947
27            3        -0.0 +j     -0.0        0.0       0.9983
   TERMINAL TOTAL .     1.1 +j      0.4        1.1       0.9500
31            1        -1.1 +j     -0.4        1.1       0.9500
31            2         0.0 +j      0.0        0.0       0.9947
31            3         0.0 +j      0.0        0.0       0.9983
   TERMINAL TOTAL .    -1.1 +j     -0.4        1.1       0.9500

ELEMENT = "Line.LINE31"
28            1        20.2 +j      6.6       21.2       0.9509
28            2        20.2 +j      6.6       21.3       0.9500
28            3        16.1 +j      5.3       17.0       0.9504
   TERMINAL TOTAL .    56.5 +j     18.5       59.5       0.9504
32            1       -20.2 +j     -6.6       21.2       0.9509
32            2       -20.2 +j     -6.6       21.3       0.9500
32            3       -16.1 +j     -5.3       17.0       0.9504
   TERMINAL TOTAL .   -56.5 +j    -18.5       59.5       0.9504

ELEMENT = "Line.LINE32"
29            1         0.0 +j     -0.0        0.0      -0.9980
29            2         0.0 +j     -0.0        0.0      -0.9959
29            3         0.0 +j     -0.0        0.0      -1.0000
   TERMINAL TOTAL .     0.0 +j     -0.0        0.0      -0.9985
33            1        -0.0 +j      0.0        0.0      -0.9980
33            2        -0.0 +j      0.0        0.0      -0.9959
33            3        -0.0 +j      0.0        0.0      -1.0000
   TERMINAL TOTAL .    -0.0 +j      0.0        0.0      -0.9985

ELEMENT = "Line.LINE33"
30            1         1.1 +j      0.4        1.1       0.9500
30            2        -0.0 +j      0.0        0.0      -0.9268
30            3        -0.0 +j     -0.0        0.0       0.9833
   TERMINAL TOTAL .     1.1 +j      0.4        1.1       0.9500
34            1        -1.1 +j     -0.4        1.1       0.9500
34            2         0.0 +j     -0.0        0.0      -0.9268
34            3         0.0 +j      0.0        0.0       0.9833
   TERMINAL TOTAL .    -1.1 +j     -0.4        1.1       0.9500

ELEMENT = "Line.LINE34"
31            1         1.1 +j      0.4        1.1       0.9500
31            2        -0.0 +j     -0.0        0.0       0.9984
31            3        -0.0 +j     -0.0        0.0       0.9996
   TERMINAL TOTAL .     1.1 +j      0.4        1.1       0.9500
35            1        -1.1 +j     -0.4        1.1       0.9500
35            2         0.0 +j      0.0        0.0       0.9984
35            3         0.0 +j      0.0        0.0       0.9996
   TERMINAL TOTAL .    -1.1 +j     -0.4        1.1       0.9500

ELEMENT = "Line.LINE35"
32            1        -0.0 +j     -0.0        0.0       0.9975
32            2         2.1 +j      0.7        2.3       0.9500
32            3        -0.0 +j     -0.0        0.0       0.9996
   TERMINAL TOTAL .     2.1 +j      0.7        2.3       0.9500
36            1         0.0 +j      0.0        0.0       0.9975
36            2        -2.1 +j     -0.7        2.3       0.9500
36            3         0.0 +j      0.0        0.0       0.9996
   TERMINAL TOTAL .    -2.1 +j     -0.7        2.3       0.9500

ELEMENT = "Line.LINE36"
32            1        20.2 +j      6.6       21.2       0.9509
32            2        18.1 +j      5.9       19.0       0.9500
32            3        16.1 +j      5.3       17.0       0.9504
   TERMINAL TOTAL .    54.4 +j     17.8       57.2       0.9504
37            1       -20.2 +j     -6.6       21.2       0.9508
37            2       -18.0 +j     -5.9       19.0       0.9500
37            3       -16.1 +j     -5.3       16.9       0.9503
   TERMINAL TOTAL .   -54.3 +j    -17.8       57.1       0.9504

ELEMENT = "Line.LINE37"
33            1         0.0 +j     -0.0        0.0      -0.9791
33            2         0.0 +j     -0.0        0.0      -0.9924
33            3         0.0 +j      0.0        0.0       1.0000
   TERMINAL TOTAL .     0.0 +j     -0.0        0.0      -0.9924
38            1        -0.0 +j      0.0        0.0      -0.9791
38            2        -0.0 +j      0.0        0.0      -0.9924
38            3        -0.0 +j     -0.0        0.0       1.0000
   TERMINAL TOTAL .    -0.0 +j      0.0        0.0      -0.9924

ELEMENT = "Line.LINE38"
35            1         1.1 +j      0.4        1.1       0.9500
35            2        -0.0 +j      0.0        0.0      -0.8942
35            3        -0.0 +j     -0.0        0.0       0.9994
   TERMINAL TOTAL .     1.1 +j      0.4        1.1       0.9500
39            1        -1.1 +j     -0.4        1.1       0.9500
39            2         0.0 +j     -0.0        0.0      -0.8942
39            3         0.0 +j      0.0        0.0       0.9994
   TERMINAL TOTAL .    -1.1 +j     -0.4        1.1       0.9500

ELEMENT = "Line.LINE39"
36            1        -0.0 +j     -0.0        0.0       0.9965
36            2         1.1 +j      0.4        1.1       0.9500
36            3        -0.0 +j     -0.0        0.0       0.9996
   TERMINAL TOTAL .     1.1 +j      0.4        1.1       0.9500
40            1         0.0 +j      0.0        0.0       0.9965
40            2        -1.1 +j     -0.4        1.1       0.9500
40            3         0.0 +j      0.0        0.0       0.9996
   TERMINAL TOTAL .    -1.1 +j     -0.4        1.1       0.9500

ELEMENT = "Line.LINE40"
36            1         0.0 +j      0.0        0.0       0.9691
36            2         1.1 +j      0.4        1.1       0.9500
36            3        -0.0 +j     -0.0        0.0       0.0023
   TERMINAL TOTAL .     1.1 +j      0.4        1.1       0.9500
41            1        -0.0 +j     -0.0        0.0       0.9691
41            2        -1.1 +j     -0.4        1.1       0.9500
41            3         0.0 +j      0.0        0.0       0.0023
   TERMINAL TOTAL .    -1.1 +j     -0.4        1.1       0.9500

ELEMENT = "Line.LINE41"
37            1        20.2 +j      6.6       21.2       0.9508
37            2        18.0 +j      5.9       19.0       0.9500
37            3        16.1 +j      5.3       16.9       0.9503
   TERMINAL TOTAL .    54.3 +j     17.8       57.1       0.9504
42            1       -20.1 +j     -6.6       21.2       0.9507
42            2       -18.0 +j     -5.9       19.0       0.9500
42            3       -16.1 +j     -5.3       16.9       0.9503
   TERMINAL TOTAL .   -54.3 +j    -17.8       57.1       0.9503

ELEMENT = "Line.LINE42"
37            1        -0.0 +j      0.0        0.0      -0.4364
37            2        -0.0 +j     -0.0        0.0       0.6428
37            3         0.0 +j      0.0        0.0       0.6628
   TERMINAL TOTAL .     0.0 +j      0.0        0.0       0.0217
43            1         0.0 +j     -0.0        0.0      -0.4364
43            2         0.0 +j      0.0        0.0       0.6428
43            3        -0.0 +j     -0.0        0.0       0.6628
   TERMINAL TOTAL .    -0.0 +j     -0.0        0.0       0.0217

ELEMENT = "Line.LINE43"
38            1         0.0 +j      0.0        0.0       0.9932
38            2         0.0 +j     -0.0        0.0      -0.9924
38            3         0.0 +j      0.0        0.0       0.9996
   TERMINAL TOTAL .     0.0 +j      0.0        0.0       1.0000
44            1        -0.0 +j     -0.0        0.0       0.9932
44            2        -0.0 +j      0.0        0.0      -0.9924
44            3        -0.0 +j     -0.0        0.0       0.9996
   TERMINAL TOTAL .    -0.0 +j     -0.0        0.0       1.0000

ELEMENT = "Line.LINE44"
39            1         1.1 +j      0.4        1.1       0.9500
39            2         0.0 +j      0.0        0.0       0.6937
39            3        -0.0 +j     -0.0        0.0       0.9833
   TERMINAL TOTAL .     1.1 +j      0.4        1.1       0.9500
45            1        -1.1 +j     -0.4        1.1       0.9500
45            2        -0.0 +j     -0.0        0.0       0.6937
45            3         0.0 +j      0.0        0.0       0.9833
   TERMINAL TOTAL .    -1.1 +j     -0.4        1.1       0.9500

ELEMENT = "Line.LINE45"
40            1        -0.0 +j      0.0        0.0      -0.9610
40            2         1.1 +j      0.4        1.1       0.9500
40            3        -0.0 +j     -0.0        0.0       0.9992
   TERMINAL TOTAL .     1.1 +j      0.4        1.1       0.9500
46            1         0.0 +j     -0.0        0.0      -0.9610
46            2        -1.1 +j     -0.4        1.1       0.9500
46            3         0.0 +j      0.0        0.0       0.9992
   TERMINAL TOTAL .    -1.1 +j     -0.4        1.1       0.9500

ELEMENT = "Line.LINE46"
41            1        -0.0 +j      0.0        0.0      -0.9380
41            2         1.1 +j      0.4        1.1       0.9500
41            3         0.0 +j      0.0        0.0       0.9982
   TERMINAL TOTAL .     1.1 +j      0.4        1.1       0.9500
47            1         0.0 +j     -0.0        0.0      -0.9380
47            2        -1.1 +j     -0.4        1.1       0.9500
47            3        -0.0 +j     -0.0        0.0       0.9982
   TERMINAL TOTAL .    -1.1 +j     -0.4        1.1       0.9500

ELEMENT = "Line.LINE47"
42            1        20.1 +j      6.6       21.2       0.9507
42            2        18.0 +j      5.9       19.0       0.9500
42            3        16.1 +j      5.3       16.9       0.9503
   TERMINAL TOTAL .    54.3 +j     17.8       57.1       0.9503
48            1       -20.1 +j     -6.6       21.2       0.9506
48            2       -18.0 +j     -5.9       19.0       0.9500
48            3       -16.1 +j     -5.3       16.9       0.9502
   TERMINAL TOTAL .   -54.2 +j    -17.8       57.1       0.9503

ELEMENT = "Line.LINE48"
43            1        -0.0 +j      0.0        0.0      -0.4046
43            2        -0.0 +j     -0.0        0.0       0.7770
43            3         0.0 +j      0.0        0.0       0.4725
   TERMINAL TOTAL .    -0.0 +j      0.0        0.0      -0.1785
49            1         0.0 +j     -0.0        0.0      -0.4046
49            2         0.0 +j      0.0        0.0       0.7770
49            3        -0.0 +j     -0.0        0.0       0.4725
   TERMINAL TOTAL .     0.0 +j     -0.0        0.0      -0.1785

ELEMENT = "Line.LINE49"
44            1         0.0 +j     -0.0        0.0      -0.9606
44            2         0.0 +j      0.0        0.0       0.9624
44            3         0.0 +j     -0.0        0.0      -1.0000
   TERMINAL TOTAL .     0.0 +j     -0.0        0.0      -1.0000
50            1        -0.0 +j      0.0        0.0      -0.9606
50            2        -0.0 +j     -0.0        0.0       0.9624
50            3        -0.0 +j      0.0        0.0      -1.0000
   TERMINAL TOTAL .    -0.0 +j      0.0        0.0      -1.0000

ELEMENT = "Line.LINE50"
45            1         1.1 +j      0.4        1.1       0.9500
45            2         0.0 +j     -0.0        0.0      -0.9828
45            3         0.0 +j     -0.0        0.0      -0.9695
   TERMINAL TOTAL .     1.1 +j      0.4        1.1       0.9500
51            1        -1.1 +j     -0.4        1.1       0.9500
51            2        -0.0 +j      0.0        0.0      -0.9828
51            3        -0.0 +j      0.0        0.0      -0.9695
   TERMINAL TOTAL .    -1.1 +j     -0.4        1.1       0.9500

ELEMENT = "Line.LINE51"
46            1         0.0 +j     -0.0        0.0      -0.9148
46            2         1.1 +j      0.4        1.1       0.9500
46            3        -0.0 +j     -0.0        0.0       0.9982
   TERMINAL TOTAL .     1.1 +j      0.4        1.1       0.9500
52            1        -0.0 +j      0.0        0.0      -0.9148
52            2        -1.1 +j     -0.4        1.1       0.9500
52            3         0.0 +j      0.0        0.0       0.9982
   TERMINAL TOTAL .    -1.1 +j     -0.4        1.1       0.9500

ELEMENT = "Line.LINE52"
48            1        20.1 +j      6.6       21.2       0.9506
48            2        18.0 +j      5.9       19.0       0.9500
48            3        16.1 +j      5.3       16.9       0.9502
   TERMINAL TOTAL .    54.2 +j     17.8       57.1       0.9503
53            1       -20.1 +j     -6.6       21.2       0.9506
53            2       -18.0 +j     -5.9       19.0       0.9500
53            3       -16.1 +j     -5.3       16.9       0.9502
   TERMINAL TOTAL .   -54.2 +j    -17.8       57.1       0.9503

ELEMENT = "Line.LINE53"
48            1         0.0 +j      0.0        0.0       0.9990
48            2         0.0 +j     -0.0        0.0      -0.9667
48            3        -0.0 +j     -0.0        0.0       0.9982
   TERMINAL TOTAL .     0.0 +j     -0.0        0.0      -0.9931
54            1        -0.0 +j     -0.0        0.0       0.9990
54            2        -0.0 +j      0.0        0.0      -0.9667
54            3         0.0 +j      0.0        0.0       0.9982
   TERMINAL TOTAL .    -0.0 +j      0.0        0.0      -0.9931

ELEMENT = "Line.LINE54"
49            1        -0.0 +j      0.0        0.0      -0.6170
49            2        -0.0 +j     -0.0        0.0       0.8677
...